REMARK  4 active torsions:
REMARK  status: ('A' for Active; 'I' for Inactive)
REMARK    1  A    between atoms: N_1  and  C_2 
REMARK    2  A    between atoms: C_2  and  C_3 
REMARK    3  A    between atoms: C_3  and  O_4 
REMARK    4  A    between atoms: O_4  and  C_5 
ROOT
HETATM    1  C   UNN     0       0.372   0.651   0.760  0.00  0.00     0.262 C 
ENDROOT
BRANCH   1   2
HETATM    2  N   UNN     0      -0.221   1.994   1.130  0.00  0.00    -0.077 N 
HETATM    3  C   UNN     0       0.230   2.340   2.523  0.00  0.00     0.271 C 
HETATM    4  C   UNN     0       0.260   3.092   0.234  0.00  0.00     0.271 C 
HETATM    5  C   UNN     0      -1.727   1.940   1.100  0.00  0.00     0.271 C 
ENDBRANCH   1   2
BRANCH   1   6
HETATM    6  C   UNN     0       0.064  -0.041  -0.583  0.00  0.00     0.199 C 
BRANCH   6   7
HETATM    7  O   UNN     0       0.478  -1.418  -0.514  0.00  0.00    -0.347 OA
BRANCH   7   8
HETATM    8  C   UNN     0       0.517  -2.403  -1.556  0.00  0.00     0.253 C 
HETATM    9  O   UNN     0      -0.675  -2.422  -2.269  0.00  0.00    -0.192 OA
HETATM   10  C   UNN     0       0.705  -3.737  -0.827  0.00  0.00     0.088 C 
ENDBRANCH   7   8
ENDBRANCH   6   7
ENDBRANCH   1   6
TORSDOF 4
